Version 0/Setpoint 72/Bad Insultation/feeder13_B.glm
object triplex_line {
name trip_line1;
phases CS;
from trip_node1;
to trip_meter1;
length 0;
configuration triplex_line_configuration_1;
}
object triplex_meter {
name trip_meter1;
phases CS;
nominal_voltage 124.00;
}
object triplex_line {
name meter_house1_1;
phases CS;
from trip_meter1;
to trip_node1_1;
length 0;
configuration triplex_line_configuration_1;
}
object triplex_meter {
name trip_node1_1;
groupid trip_node_meter1;
phases CS;
nominal_voltage 124.00;
}
object triplex_line {
name trip_line1_1;
phases CS;
from trip_node1_1;
to trip_meter1_1;
length 0;
configuration triplex_line_configuration_1;
}
object triplex_meter {
name trip_meter1_1;
phases CS;
nominal_voltage 124.00;
}
object triplex_line {
name meter_house1_2;
phases CS;
from trip_meter1;
to trip_node1_2;
length 0;
configuration triplex_line_configuration_1;
}
object triplex_meter {
name trip_node1_2;
groupid trip_node_meter1;
phases CS;
nominal_voltage 124.00;
}
object triplex_line {
name trip_line1_2;
phases CS;
from trip_node1_2;
to trip_meter1_2;
length 0;
configuration triplex_line_configuration_1;
}
object triplex_meter {
name trip_meter1_2;
phases CS;
nominal_voltage 124.00;
}
object triplex_line {
name meter_house1_3;
phases CS;
from trip_meter1;
to trip_node1_3;
length 0;
configuration triplex_line_configuration_1;
}
object triplex_meter {
name trip_node1_3;
groupid trip_node_meter1;
phases CS;
nominal_voltage 124.00;
}
object triplex_line {
name trip_line1_3;
phases CS;
from trip_node1_3;
to trip_meter1_3;
length 0;
configuration triplex_line_configuration_1;
}
object triplex_meter {
name trip_meter1_3;
phases CS;
nominal_voltage 124.00;
}
object triplex_line {
name meter_house1_4;
phases CS;
from trip_meter1;
to trip_node1_4;
length 0;
configuration triplex_line_configuration_1;
}
object triplex_meter {
name trip_node1_4;
groupid trip_node_meter1;
phases CS;
nominal_voltage 124.00;
}
object triplex_line {
name trip_line1_4;
phases CS;
from trip_node1_4;
to trip_meter1_4;
length 0;
configuration triplex_line_configuration_1;
}
object triplex_meter {
name trip_meter1_4;
phases CS;
nominal_voltage 124.00;
}
object triplex_line {
name meter_house1_5;
phases CS;
from trip_meter1;
to trip_node1_5;
length 0;
configuration triplex_line_configuration_1;
}
object triplex_meter {
name trip_node1_5;
groupid trip_node_meter1;
phases CS;
nominal_voltage 124.00;
}
object triplex_line {
name trip_line1_5;
phases CS;
from trip_node1_5;
to trip_meter1_5;
length 0;
configuration triplex_line_configuration_1;
}
object triplex_meter {
name trip_meter1_5;
phases CS;
nominal_voltage 124.00;
}
object triplex_line {
name meter_house1_6;
phases CS;
from trip_meter1;
to trip_node1_6;
length 0;
configuration triplex_line_configuration_1;
}
object triplex_meter {
name trip_node1_6;
groupid trip_node_meter1;
phases CS;
nominal_voltage 124.00;
}
object triplex_line {
name trip_line1_6;
phases CS;
from trip_node1_6;
to trip_meter1_6;
length 0;
configuration triplex_line_configuration_1;
}
object triplex_meter {
name trip_meter1_6;
phases CS;
nominal_voltage 124.00;
}
object triplex_line {
name meter_house1_7;
phases CS;
from trip_meter1;
to trip_node1_7;
length 0;
configuration triplex_line_configuration_1;
}
object triplex_meter {
name trip_node1_7;
groupid trip_node_meter1;
phases CS;
nominal_voltage 124.00;
}
object triplex_line {
name trip_line1_7;
phases CS;
from trip_node1_7;
to trip_meter1_7;
length 0;
configuration triplex_line_configuration_1;
}
object triplex_meter {
name trip_meter1_7;
phases CS;
nominal_voltage 124.00;
}
object triplex_line {
name meter_house1_8;
phases CS;
from trip_meter1;
to trip_node1_8;
length 0;
configuration triplex_line_configuration_1;
}
object triplex_meter {
name trip_node1_8;
groupid trip_node_meter1;
phases CS;
nominal_voltage 124.00;
}
object triplex_line {
name trip_line1_8;
phases CS;
from trip_node1_8;
to trip_meter1_8;
length 0;
configuration triplex_line_configuration_1;
}
object triplex_meter {
name trip_meter1_8;
phases CS;
nominal_voltage 124.00;
}
object triplex_line {
name meter_house1_9;
phases CS;
from trip_meter1;
to trip_node1_9;
length 0;
configuration triplex_line_configuration_1;
}
object triplex_meter {
name trip_node1_9;
groupid trip_node_meter1;
phases CS;
nominal_voltage 124.00;
}
object triplex_line {
name trip_line1_9;
phases CS;
from trip_node1_9;
to trip_meter1_9;
length 0;
configuration triplex_line_configuration_1;
}
object triplex_meter {
name trip_meter1_9;
phases CS;
nominal_voltage 124.00;
}
object triplex_line {
name meter_house1_10;
phases CS;
from trip_meter1;
to trip_node1_10;
length 0;
configuration triplex_line_configuration_1;
}
object triplex_meter {
name trip_node1_10;
groupid trip_node_meter1;
phases CS;
nominal_voltage 124.00;
}
object triplex_line {
name trip_line1_10;
phases CS;
from trip_node1_10;
to trip_meter1_10;
length 0;
configuration triplex_line_configuration_1;
}
object triplex_meter {
name trip_meter1_10;
phases CS;
nominal_voltage 124.00;
}
object triplex_line {
name meter_house1_11;
phases CS;
from trip_meter1;
to trip_node1_11;
length 0;
configuration triplex_line_configuration_1;
}
object triplex_meter {
name trip_node1_11;
groupid trip_node_meter1;
phases CS;
nominal_voltage 124.00;
}
object triplex_line {
name trip_line1_11;
phases CS;
from trip_node1_11;
to trip_meter1_11;
length 0;
configuration triplex_line_configuration_1;
}
object triplex_meter {
name trip_meter1_11;
phases CS;
nominal_voltage 124.00;
}
object triplex_line {
name meter_house1_12;
phases CS;
from trip_meter1;
to trip_node1_12;
length 0;
configuration triplex_line_configuration_1;
}
object triplex_meter {
name trip_node1_12;
groupid trip_node_meter1;
phases CS;
nominal_voltage 124.00;
}
object triplex_line {
name trip_line1_12;
phases CS;
from trip_node1_12;
to trip_meter1_12;
length 0;
configuration triplex_line_configuration_1;
}
object triplex_meter {
name trip_meter1_12;
phases CS;
nominal_voltage 124.00;
}
object triplex_line {
name trip_line2;
phases AS;
from trip_node2;
to trip_meter2;
length 0;
configuration triplex_line_configuration_1;
}
object triplex_meter {
name trip_meter2;
phases AS;
nominal_voltage 124.00;
}
object triplex_line {
name meter_house2_1;
phases AS;
from trip_meter2;
to trip_node2_1;
length 0;
configuration triplex_line_configuration_1;
}
object triplex_meter {
name trip_node2_1;
groupid trip_node_meter2;
phases AS;
nominal_voltage 124.00;
}
object triplex_line {
name trip_line2_1;
phases AS;
from trip_node2_1;
to trip_meter2_1;
length 0;
configuration triplex_line_configuration_1;
}
object triplex_meter {
name trip_meter2_1;
phases AS;
nominal_voltage 124.00;
}
object triplex_line {
name meter_house2_2;
phases AS;
from trip_meter2;
to trip_node2_2;
length 0;
configuration triplex_line_configuration_1;
}
object triplex_meter {
name trip_node2_2;
groupid trip_node_meter2;
phases AS;
nominal_voltage 124.00;
}
object triplex_line {
name trip_line2_2;
phases AS;
from trip_node2_2;
to trip_meter2_2;
length 0;
configuration triplex_line_configuration_1;
}
object triplex_meter {
name trip_meter2_2;
phases AS;
nominal_voltage 124.00;
}
object triplex_line {
name meter_house2_3;
phases AS;
from trip_meter2;
to trip_node2_3;
length 0;
configuration triplex_line_configuration_1;
}
object triplex_meter {
name trip_node2_3;
groupid trip_node_meter2;
phases AS;
nominal_voltage 124.00;
}
object triplex_line {
name trip_line2_3;
phases AS;
from trip_node2_3;
to trip_meter2_3;
length 0;
configuration triplex_line_configuration_1;
}
object triplex_meter {
name trip_meter2_3;
phases AS;
nominal_voltage 124.00;
}
object triplex_line {
name meter_house2_4;
phases AS;
from trip_meter2;
to trip_node2_4;
length 0;
configuration triplex_line_configuration_1;
}
object triplex_meter {
name trip_node2_4;
groupid trip_node_meter2;
phases AS;
nominal_voltage 124.00;
}
object triplex_line {
name trip_line2_4;
phases AS;
from trip_node2_4;
to trip_meter2_4;
length 0;
configuration triplex_line_configuration_1;
}
object triplex_meter {
name trip_meter2_4;
phases AS;
nominal_voltage 124.00;
}
object triplex_line {
name meter_house2_5;
phases AS;
from trip_meter2;
to trip_node2_5;
length 0;
configuration triplex_line_configuration_1;
}
object triplex_meter {
name trip_node2_5;
groupid trip_node_meter2;
phases AS;
nominal_voltage 124.00;
}
object triplex_line {
name trip_line2_5;
phases AS;
from trip_node2_5;
to trip_meter2_5;
length 0;
configuration triplex_line_configuration_1;
}
object triplex_meter {
name trip_meter2_5;
phases AS;
nominal_voltage 124.00;
}
object triplex_line {
name meter_house2_6;
phases AS;
from trip_meter2;
to trip_node2_6;
length 0;
configuration triplex_line_configuration_1;
}
object triplex_meter {
name trip_node2_6;
groupid trip_node_meter2;
phases AS;
nominal_voltage 124.00;
}
object triplex_line {
name trip_line2_6;
phases AS;
from trip_node2_6;
to trip_meter2_6;
length 0;
configuration triplex_line_configuration_1;
}
object triplex_meter {
name trip_meter2_6;
phases AS;
nominal_voltage 124.00;
}
object triplex_line {
name meter_house2_7;
phases AS;
from trip_meter2;
to trip_node2_7;
length 0;
configuration triplex_line_configuration_1;
}
object triplex_meter {
name trip_node2_7;
groupid trip_node_meter2;
phases AS;
nominal_voltage 124.00;
}
object triplex_line {
name trip_line2_7;
phases AS;
from trip_node2_7;
to trip_meter2_7;
length 0;
configuration triplex_line_configuration_1;
}
object triplex_meter {
name trip_meter2_7;
phases AS;
nominal_voltage 124.00;
}
object triplex_line {
name meter_house2_8;
phases AS;
from trip_meter2;
to trip_node2_8;
length 0;
configuration triplex_line_configuration_1;
}
object triplex_meter {
name trip_node2_8;
groupid trip_node_meter2;
phases AS;
nominal_voltage 124.00;
}
object triplex_line {
name trip_line2_8;
phases AS;
from trip_node2_8;
to trip_meter2_8;
length 0;
configuration triplex_line_configuration_1;
}
object triplex_meter {
name trip_meter2_8;
phases AS;
nominal_voltage 124.00;
}
object triplex_line {
name meter_house2_9;
phases AS;
from trip_meter2;
to trip_node2_9;
length 0;
configuration triplex_line_configuration_1;
}
object triplex_meter {
name trip_node2_9;
groupid trip_node_meter2;
phases AS;
nominal_voltage 124.00;
}
object triplex_line {
name trip_line2_9;
phases AS;
from trip_node2_9;
to trip_meter2_9;
length 0;
configuration triplex_line_configuration_1;
}
object triplex_meter {
name trip_meter2_9;
phases AS;
nominal_voltage 124.00;
}
object triplex_line {
name meter_house2_10;
phases AS;
from trip_meter2;
to trip_node2_10;
length 0;
configuration triplex_line_configuration_1;
}
object triplex_meter {
name trip_node2_10;
groupid trip_node_meter2;
phases AS;
nominal_voltage 124.00;
}
object triplex_line {
name trip_line2_10;
phases AS;
from trip_node2_10;
to trip_meter2_10;
length 0;
configuration triplex_line_configuration_1;
}
object triplex_meter {
name trip_meter2_10;
phases AS;
nominal_voltage 124.00;
}
object triplex_line {
name meter_house2_11;
phases AS;
from trip_meter2;
to trip_node2_11;
length 0;
configuration triplex_line_configuration_1;
}
object triplex_meter {
name trip_node2_11;
groupid trip_node_meter2;
phases AS;
nominal_voltage 124.00;
}
object triplex_line {
name trip_line2_11;
phases AS;
from trip_node2_11;
to trip_meter2_11;
length 0;
configuration triplex_line_configuration_1;
}
object triplex_meter {
name trip_meter2_11;
phases AS;
nominal_voltage 124.00;
}
object triplex_line {
name meter_house2_12;
phases AS;
from trip_meter2;
to trip_node2_12;
length 0;
configuration triplex_line_configuration_1;
}
object triplex_meter {
name trip_node2_12;
groupid trip_node_meter2;
phases AS;
nominal_voltage 124.00;
}
object triplex_line {
name trip_line2_12;
phases AS;
from trip_node2_12;
to trip_meter2_12;
length 0;
configuration triplex_line_configuration_1;
}
object triplex_meter {
name trip_meter2_12;
phases AS;
nominal_voltage 124.00;
}
object triplex_line {
name trip_line3;
phases BS;
from trip_node3;
to trip_meter3;
length 0;
configuration triplex_line_configuration_1;
}
object triplex_meter {
name trip_meter3;
phases BS;
nominal_voltage 124.00;
}
object triplex_line {
name meter_house3_1;
phases BS;
from trip_meter3;
to trip_node3_1;
length 0;
configuration triplex_line_configuration_1;
}
object triplex_meter {
name trip_node3_1;
groupid trip_node_meter3;
phases BS;
nominal_voltage 124.00;
}
object triplex_line {
name trip_line3_1;
phases BS;
from trip_node3_1;
to trip_meter3_1;
length 0;
configuration triplex_line_configuration_1;
}
object triplex_meter {
name trip_meter3_1;
phases BS;
nominal_voltage 124.00;
}
object triplex_line {
name meter_house3_2;
phases BS;
from trip_meter3;
to trip_node3_2;
length 0;
configuration triplex_line_configuration_1;
}
object triplex_meter {
name trip_node3_2;
groupid trip_node_meter3;
phases BS;
nominal_voltage 124.00;
}
object triplex_line {
name trip_line3_2;
phases BS;
from trip_node3_2;
to trip_meter3_2;
length 0;
configuration triplex_line_configuration_1;
}
object triplex_meter {
name trip_meter3_2;
phases BS;
nominal_voltage 124.00;
}
object triplex_line {
name meter_house3_3;
phases BS;
from trip_meter3;
to trip_node3_3;
length 0;
configuration triplex_line_configuration_1;
}
object triplex_meter {
name trip_node3_3;
groupid trip_node_meter3;
phases BS;
nominal_voltage 124.00;
}
object triplex_line {
name trip_line3_3;
phases BS;
from trip_node3_3;
to trip_meter3_3;
length 0;
configuration triplex_line_configuration_1;
}
object triplex_meter {
name trip_meter3_3;
phases BS;
nominal_voltage 124.00;
}
object triplex_line {
name meter_house3_4;
phases BS;
from trip_meter3;
to trip_node3_4;
length 0;
configuration triplex_line_configuration_1;
}
object triplex_meter {
name trip_node3_4;
groupid trip_node_meter3;
phases BS;
nominal_voltage 124.00;
}
object triplex_line {
name trip_line3_4;
phases BS;
from trip_node3_4;
to trip_meter3_4;
length 0;
configuration triplex_line_configuration_1;
}
object triplex_meter {
name trip_meter3_4;
phases BS;
nominal_voltage 124.00;
}
object triplex_line {
name meter_house3_5;
phases BS;
from trip_meter3;
to trip_node3_5;
length 0;
configuration triplex_line_configuration_1;
}
object triplex_meter {
name trip_node3_5;
groupid trip_node_meter3;
phases BS;
nominal_voltage 124.00;
}
object triplex_line {
name trip_line3_5;
phases BS;
from trip_node3_5;
to trip_meter3_5;
length 0;
configuration triplex_line_configuration_1;
}
object triplex_meter {
name trip_meter3_5;
phases BS;
nominal_voltage 124.00;
}
object triplex_line {
name meter_house3_6;
phases BS;
from trip_meter3;
to trip_node3_6;
length 0;
configuration triplex_line_configuration_1;
}
object triplex_meter {
name trip_node3_6;
groupid trip_node_meter3;
phases BS;
nominal_voltage 124.00;
}
object triplex_line {
name trip_line3_6;
phases BS;
from trip_node3_6;
to trip_meter3_6;
length 0;
configuration triplex_line_configuration_1;
}
object triplex_meter {
name trip_meter3_6;
phases BS;
nominal_voltage 124.00;
}
object triplex_line {
name meter_house3_7;
phases BS;
from trip_meter3;
to trip_node3_7;
length 0;
configuration triplex_line_configuration_1;
}
object triplex_meter {
name trip_node3_7;
groupid trip_node_meter3;
phases BS;
nominal_voltage 124.00;
}
object triplex_line {
name trip_line3_7;
phases BS;
from trip_node3_7;
to trip_meter3_7;
length 0;
configuration triplex_line_configuration_1;
}
object triplex_meter {
name trip_meter3_7;
phases BS;
nominal_voltage 124.00;
}
object triplex_line {
name meter_house3_8;
phases BS;
from trip_meter3;
to trip_node3_8;
length 0;
configuration triplex_line_configuration_1;
}
object triplex_meter {
name trip_node3_8;
groupid trip_node_meter3;
phases BS;
nominal_voltage 124.00;
}
object triplex_line {
name trip_line3_8;
phases BS;
from trip_node3_8;
to trip_meter3_8;
length 0;
configuration triplex_line_configuration_1;
}
object triplex_meter {
name trip_meter3_8;
phases BS;
nominal_voltage 124.00;
}
object triplex_line {
name meter_house3_9;
phases BS;
from trip_meter3;
to trip_node3_9;
length 0;
configuration triplex_line_configuration_1;
}
object triplex_meter {
name trip_node3_9;
groupid trip_node_meter3;
phases BS;
nominal_voltage 124.00;
}
object triplex_line {
name trip_line3_9;
phases BS;
from trip_node3_9;
to trip_meter3_9;
length 0;
configuration triplex_line_configuration_1;
}
object triplex_meter {
name trip_meter3_9;
phases BS;
nominal_voltage 124.00;
}
object triplex_line {
name meter_house3_10;
phases BS;
from trip_meter3;
to trip_node3_10;
length 0;
configuration triplex_line_configuration_1;
}
object triplex_meter {
name trip_node3_10;
groupid trip_node_meter3;
phases BS;
nominal_voltage 124.00;
}
object triplex_line {
name trip_line3_10;
phases BS;
from trip_node3_10;
to trip_meter3_10;
length 0;
configuration triplex_line_configuration_1;
}
object triplex_meter {
name trip_meter3_10;
phases BS;
nominal_voltage 124.00;
}
object triplex_line {
name meter_house3_11;
phases BS;
from trip_meter3;
to trip_node3_11;
length 0;
configuration triplex_line_configuration_1;
}
object triplex_meter {
name trip_node3_11;
groupid trip_node_meter3;
phases BS;
nominal_voltage 124.00;
}
object triplex_line {
name trip_line3_11;
phases BS;
from trip_node3_11;
to trip_meter3_11;
length 0;
configuration triplex_line_configuration_1;
}
object triplex_meter {
name trip_meter3_11;
phases BS;
nominal_voltage 124.00;
}
object triplex_line {
name meter_house3_12;
phases BS;
from trip_meter3;
to trip_node3_12;
length 0;
configuration triplex_line_configuration_1;
}
object triplex_meter {
name trip_node3_12;
groupid trip_node_meter3;
phases BS;
nominal_voltage 124.00;
}
object triplex_line {
name trip_line3_12;
phases BS;
from trip_node3_12;
to trip_meter3_12;
length 0;
configuration triplex_line_configuration_1;
}
object triplex_meter {
name trip_meter3_12;
phases BS;
nominal_voltage 124.00;
}
object triplex_line {
name trip_line4;
phases CS;
from trip_node4;
to trip_meter4;
length 0;
configuration triplex_line_configuration_1;
}
object triplex_meter {
name trip_meter4;
phases CS;
nominal_voltage 124.00;
}
object triplex_line {
name meter_house4_1;
phases CS;
from trip_meter4;
to trip_node4_1;
length 0;
configuration triplex_line_configuration_1;
}
object triplex_meter {
name trip_node4_1;
groupid trip_node_meter4;
phases CS;
nominal_voltage 124.00;
}
object triplex_line {
name trip_line4_1;
phases CS;
from trip_node4_1;
to trip_meter4_1;
length 0;
configuration triplex_line_configuration_1;
}
object triplex_meter {
name trip_meter4_1;
phases CS;
nominal_voltage 124.00;
}
object triplex_line {
name meter_house4_2;
phases CS;
from trip_meter4;
to trip_node4_2;
length 0;
configuration triplex_line_configuration_1;
}
object triplex_meter {
name trip_node4_2;
groupid trip_node_meter4;
phases CS;
nominal_voltage 124.00;
}
object triplex_line {
name trip_line4_2;
phases CS;
from trip_node4_2;
to trip_meter4_2;
length 0;
configuration triplex_line_configuration_1;
}
object triplex_meter {
name trip_meter4_2;
phases CS;
nominal_voltage 124.00;
}
object triplex_line {
name meter_house4_3;
phases CS;
from trip_meter4;
to trip_node4_3;
length 0;
configuration triplex_line_configuration_1;
}
object triplex_meter {
name trip_node4_3;
groupid trip_node_meter4;
phases CS;
nominal_voltage 124.00;
}
object triplex_line {
name trip_line4_3;
phases CS;
from trip_node4_3;
to trip_meter4_3;
length 0;
configuration triplex_line_configuration_1;
}
object triplex_meter {
name trip_meter4_3;
phases CS;
nominal_voltage 124.00;
}
object triplex_line {
name meter_house4_4;
phases CS;
from trip_meter4;
to trip_node4_4;
length 0;
configuration triplex_line_configuration_1;
}
object triplex_meter {
name trip_node4_4;
groupid trip_node_meter4;
phases CS;
nominal_voltage 124.00;
}
object triplex_line {
name trip_line4_4;
phases CS;
from trip_node4_4;
to trip_meter4_4;
length 0;
configuration triplex_line_configuration_1;
}
object triplex_meter {
name trip_meter4_4;
phases CS;
nominal_voltage 124.00;
}
object triplex_line {
name meter_house4_5;
phases CS;
from trip_meter4;
to trip_node4_5;
length 0;
configuration triplex_line_configuration_1;
}
object triplex_meter {
name trip_node4_5;
groupid trip_node_meter4;
phases CS;
nominal_voltage 124.00;
}
object triplex_line {
name trip_line4_5;
phases CS;
from trip_node4_5;
to trip_meter4_5;
length 0;
configuration triplex_line_configuration_1;
}
object triplex_meter {
name trip_meter4_5;
phases CS;
nominal_voltage 124.00;
}
object triplex_line {
name meter_house4_6;
phases CS;
from trip_meter4;
to trip_node4_6;
length 0;
configuration triplex_line_configuration_1;
}
object triplex_meter {
name trip_node4_6;
groupid trip_node_meter4;
phases CS;
nominal_voltage 124.00;
}
object triplex_line {
name trip_line4_6;
phases CS;
from trip_node4_6;
to trip_meter4_6;
length 0;
configuration triplex_line_configuration_1;
}
object triplex_meter {
name trip_meter4_6;
phases CS;
nominal_voltage 124.00;
}
object triplex_line {
name meter_house4_7;
phases CS;
from trip_meter4;
to trip_node4_7;
length 0;
configuration triplex_line_configuration_1;
}
object triplex_meter {
name trip_node4_7;
groupid trip_node_meter4;
phases CS;
nominal_voltage 124.00;
}
object triplex_line {
name trip_line4_7;
phases CS;
from trip_node4_7;
to trip_meter4_7;
length 0;
configuration triplex_line_configuration_1;
}
object triplex_meter {
name trip_meter4_7;
phases CS;
nominal_voltage 124.00;
}
object triplex_line {
name meter_house4_8;
phases CS;
from trip_meter4;
to trip_node4_8;
length 0;
configuration triplex_line_configuration_1;
}
object triplex_meter {
name trip_node4_8;
groupid trip_node_meter4;
phases CS;
nominal_voltage 124.00;
}
object triplex_line {
name trip_line4_8;
phases CS;
from trip_node4_8;
to trip_meter4_8;
length 0;
configuration triplex_line_configuration_1;
}
object triplex_meter {
name trip_meter4_8;
phases CS;
nominal_voltage 124.00;
}
object triplex_line {
name meter_house4_9;
phases CS;
from trip_meter4;
to trip_node4_9;
length 0;
configuration triplex_line_configuration_1;
}
object triplex_meter {
name trip_node4_9;
groupid trip_node_meter4;
phases CS;
nominal_voltage 124.00;
}
object triplex_line {
name trip_line4_9;
phases CS;
from trip_node4_9;
to trip_meter4_9;
length 0;
configuration triplex_line_configuration_1;
}
object triplex_meter {
name trip_meter4_9;
phases CS;
nominal_voltage 124.00;
}
object triplex_line {
name meter_house4_10;
phases CS;
from trip_meter4;
to trip_node4_10;
length 0;
configuration triplex_line_configuration_1;
}
object triplex_meter {
name trip_node4_10;
groupid trip_node_meter4;
phases CS;
nominal_voltage 124.00;
}
object triplex_line {
name trip_line4_10;
phases CS;
from trip_node4_10;
to trip_meter4_10;
length 0;
configuration triplex_line_configuration_1;
}
object triplex_meter {
name trip_meter4_10;
phases CS;
nominal_voltage 124.00;
}
object triplex_line {
name meter_house4_11;
phases CS;
from trip_meter4;
to trip_node4_11;
length 0;
configuration triplex_line_configuration_1;
}
object triplex_meter {
name trip_node4_11;
groupid trip_node_meter4;
phases CS;
nominal_voltage 124.00;
}
object triplex_line {
name trip_line4_11;
phases CS;
from trip_node4_11;
to trip_meter4_11;
length 0;
configuration triplex_line_configuration_1;
}
object triplex_meter {
name trip_meter4_11;
phases CS;
nominal_voltage 124.00;
}
object triplex_line {
name meter_house4_12;
phases CS;
from trip_meter4;
to trip_node4_12;
length 0;
configuration triplex_line_configuration_1;
}
object triplex_meter {
name trip_node4_12;
groupid trip_node_meter4;
phases CS;
nominal_voltage 124.00;
}
object triplex_line {
name trip_line4_12;
phases CS;
from trip_node4_12;
to trip_meter4_12;
length 0;
configuration triplex_line_configuration_1;
}
object triplex_meter {
name trip_meter4_12;
phases CS;
nominal_voltage 124.00;
}
object triplex_line {
name trip_line5;
phases BS;
from trip_node5;
to trip_meter5;
length 0;
configuration triplex_line_configuration_1;
}
object triplex_meter {
name trip_meter5;
phases BS;
nominal_voltage 124.00;
}
object triplex_line {
name meter_house5_1;
phases BS;
from trip_meter5;
to trip_node5_1;
length 0;
configuration triplex_line_configuration_1;
}
object triplex_meter {
name trip_node5_1;
groupid trip_node_meter5;
phases BS;
nominal_voltage 124.00;
}
object triplex_line {
name trip_line5_1;
phases BS;
from trip_node5_1;
to trip_meter5_1;
length 0;
configuration triplex_line_configuration_1;
}
object triplex_meter {
name trip_meter5_1;
phases BS;
nominal_voltage 124.00;
}
object triplex_line {
name meter_house5_2;
phases BS;
from trip_meter5;
to trip_node5_2;
length 0;
configuration triplex_line_configuration_1;
}
object triplex_meter {
name trip_node5_2;
groupid trip_node_meter5;
phases BS;
nominal_voltage 124.00;
}
object triplex_line {
name trip_line5_2;
phases BS;
from trip_node5_2;
to trip_meter5_2;
length 0;
configuration triplex_line_configuration_1;
}
object triplex_meter {
name trip_meter5_2;
phases BS;
nominal_voltage 124.00;
}
object triplex_line {
name meter_house5_3;
phases BS;
from trip_meter5;
to trip_node5_3;
length 0;
configuration triplex_line_configuration_1;
}
object triplex_meter {
name trip_node5_3;
groupid trip_node_meter5;
phases BS;
nominal_voltage 124.00;
}
object triplex_line {
name trip_line5_3;
phases BS;
from trip_node5_3;
to trip_meter5_3;
length 0;
configuration triplex_line_configuration_1;
}
object triplex_meter {
name trip_meter5_3;
phases BS;
nominal_voltage 124.00;
}
object triplex_line {
name meter_house5_4;
phases BS;
from trip_meter5;
to trip_node5_4;
length 0;
configuration triplex_line_configuration_1;
}
object triplex_meter {
name trip_node5_4;
groupid trip_node_meter5;
phases BS;
nominal_voltage 124.00;
}
object triplex_line {
name trip_line5_4;
phases BS;
from trip_node5_4;
to trip_meter5_4;
length 0;
configuration triplex_line_configuration_1;
}
object triplex_meter {
name trip_meter5_4;
phases BS;
nominal_voltage 124.00;
}
object triplex_line {
name meter_house5_5;
phases BS;
from trip_meter5;
to trip_node5_5;
length 0;
configuration triplex_line_configuration_1;
}
object triplex_meter {
name trip_node5_5;
groupid trip_node_meter5;
phases BS;
nominal_voltage 124.00;
}
object triplex_line {
name trip_line5_5;
phases BS;
from trip_node5_5;
to trip_meter5_5;
length 0;
configuration triplex_line_configuration_1;
}
object triplex_meter {
name trip_meter5_5;
phases BS;
nominal_voltage 124.00;
}
object triplex_line {
name meter_house5_6;
phases BS;
from trip_meter5;
to trip_node5_6;
length 0;
configuration triplex_line_configuration_1;
}
object triplex_meter {
name trip_node5_6;
groupid trip_node_meter5;
phases BS;
nominal_voltage 124.00;
}
object triplex_line {
name trip_line5_6;
phases BS;
from trip_node5_6;
to trip_meter5_6;
length 0;
configuration triplex_line_configuration_1;
}
object triplex_meter {
name trip_meter5_6;
phases BS;
nominal_voltage 124.00;
}
object triplex_line {
name meter_house5_7;
phases BS;
from trip_meter5;
to trip_node5_7;
length 0;
configuration triplex_line_configuration_1;
}
object triplex_meter {
name trip_node5_7;
groupid trip_node_meter5;
phases BS;
nominal_voltage 124.00;
}
object triplex_line {
name trip_line5_7;
phases BS;
from trip_node5_7;
to trip_meter5_7;
length 0;
configuration triplex_line_configuration_1;
}
object triplex_meter {
name trip_meter5_7;
phases BS;
nominal_voltage 124.00;
}
object triplex_line {
name meter_house5_8;
phases BS;
from trip_meter5;
to trip_node5_8;
length 0;
configuration triplex_line_configuration_1;
}
object triplex_meter {
name trip_node5_8;
groupid trip_node_meter5;
phases BS;
nominal_voltage 124.00;
}
object triplex_line {
name trip_line5_8;
phases BS;
from trip_node5_8;
to trip_meter5_8;
length 0;
configuration triplex_line_configuration_1;
}
object triplex_meter {
name trip_meter5_8;
phases BS;
nominal_voltage 124.00;
}
object triplex_line {
name meter_house5_9;
phases BS;
from trip_meter5;
to trip_node5_9;
length 0;
configuration triplex_line_configuration_1;
}
object triplex_meter {
name trip_node5_9;
groupid trip_node_meter5;
phases BS;
nominal_voltage 124.00;
}
object triplex_line {
name trip_line5_9;
phases BS;
from trip_node5_9;
to trip_meter5_9;
length 0;
configuration triplex_line_configuration_1;
}
object triplex_meter {
name trip_meter5_9;
phases BS;
nominal_voltage 124.00;
}
object triplex_line {
name meter_house5_10;
phases BS;
from trip_meter5;
to trip_node5_10;
length 0;
configuration triplex_line_configuration_1;
}
object triplex_meter {
name trip_node5_10;
groupid trip_node_meter5;
phases BS;
nominal_voltage 124.00;
}
object triplex_line {
name trip_line5_10;
phases BS;
from trip_node5_10;
to trip_meter5_10;
length 0;
configuration triplex_line_configuration_1;
}
object triplex_meter {
name trip_meter5_10;
phases BS;
nominal_voltage 124.00;
}
object triplex_line {
name meter_house5_11;
phases BS;
from trip_meter5;
to trip_node5_11;
length 0;
configuration triplex_line_configuration_1;
}
object triplex_meter {
name trip_node5_11;
groupid trip_node_meter5;
phases BS;
nominal_voltage 124.00;
}
object triplex_line {
name trip_line5_11;
phases BS;
from trip_node5_11;
to trip_meter5_11;
length 0;
configuration triplex_line_configuration_1;
}
object triplex_meter {
name trip_meter5_11;
phases BS;
nominal_voltage 124.00;
}
object triplex_line {
name meter_house5_12;
phases BS;
from trip_meter5;
to trip_node5_12;
length 0;
configuration triplex_line_configuration_1;
}
object triplex_meter {
name trip_node5_12;
groupid trip_node_meter5;
phases BS;
nominal_voltage 124.00;
}
object triplex_line {
name trip_line5_12;
phases BS;
from trip_node5_12;
to trip_meter5_12;
length 0;
configuration triplex_line_configuration_1;
}
object triplex_meter {
name trip_meter5_12;
phases BS;
nominal_voltage 124.00;
}
object triplex_line {
name trip_line6;
phases CS;
from trip_node6;
to trip_meter6;
length 0;
configuration triplex_line_configuration_1;
}
object triplex_meter {
name trip_meter6;
phases CS;
nominal_voltage 124.00;
}
object triplex_line {
name meter_house6_1;
phases CS;
from trip_meter6;
to trip_node6_1;
length 0;
configuration triplex_line_configuration_1;
}
object triplex_meter {
name trip_node6_1;
groupid trip_node_meter6;
phases CS;
nominal_voltage 124.00;
}
object triplex_line {
name trip_line6_1;
phases CS;
from trip_node6_1;
to trip_meter6_1;
length 0;
configuration triplex_line_configuration_1;
}
object triplex_meter {
name trip_meter6_1;
phases CS;
nominal_voltage 124.00;
}
object triplex_line {
name meter_house6_2;
phases CS;
from trip_meter6;
to trip_node6_2;
length 0;
configuration triplex_line_configuration_1;
}
object triplex_meter {
name trip_node6_2;
groupid trip_node_meter6;
phases CS;
nominal_voltage 124.00;
}
object triplex_line {
name trip_line6_2;
phases CS;
from trip_node6_2;
to trip_meter6_2;
length 0;
configuration triplex_line_configuration_1;
}
object triplex_meter {
name trip_meter6_2;
phases CS;
nominal_voltage 124.00;
}
object triplex_line {
name meter_house6_3;
phases CS;
from trip_meter6;
to trip_node6_3;
length 0;
configuration triplex_line_configuration_1;
}
object triplex_meter {
name trip_node6_3;
groupid trip_node_meter6;
phases CS;
nominal_voltage 124.00;
}
object triplex_line {
name trip_line6_3;
phases CS;
from trip_node6_3;
to trip_meter6_3;
length 0;
configuration triplex_line_configuration_1;
}
object triplex_meter {
name trip_meter6_3;
phases CS;
nominal_voltage 124.00;
}
object triplex_line {
name meter_house6_4;
phases CS;
from trip_meter6;
to trip_node6_4;
length 0;
configuration triplex_line_configuration_1;
}
object triplex_meter {
name trip_node6_4;
groupid trip_node_meter6;
phases CS;
nominal_voltage 124.00;
}
object triplex_line {
name trip_line6_4;
phases CS;
from trip_node6_4;
to trip_meter6_4;
length 0;
configuration triplex_line_configuration_1;
}
object triplex_meter {
name trip_meter6_4;
phases CS;
nominal_voltage 124.00;
}
object triplex_line {
name meter_house6_5;
phases CS;
from trip_meter6;
to trip_node6_5;
length 0;
configuration triplex_line_configuration_1;
}
object triplex_meter {
name trip_node6_5;
groupid trip_node_meter6;
phases CS;
nominal_voltage 124.00;
}
object triplex_line {
name trip_line6_5;
phases CS;
from trip_node6_5;
to trip_meter6_5;
length 0;
configuration triplex_line_configuration_1;
}
object triplex_meter {
name trip_meter6_5;
phases CS;
nominal_voltage 124.00;
}
object triplex_line {
name meter_house6_6;
phases CS;
from trip_meter6;
to trip_node6_6;
length 0;
configuration triplex_line_configuration_1;
}
object triplex_meter {
name trip_node6_6;
groupid trip_node_meter6;
phases CS;
nominal_voltage 124.00;
}
object triplex_line {
name trip_line6_6;
phases CS;
from trip_node6_6;
to trip_meter6_6;
length 0;
configuration triplex_line_configuration_1;
}
object triplex_meter {
name trip_meter6_6;
phases CS;
nominal_voltage 124.00;
}
object triplex_line {
name meter_house6_7;
phases CS;
from trip_meter6;
to trip_node6_7;
length 0;
configuration triplex_line_configuration_1;
}
object triplex_meter {
name trip_node6_7;
groupid trip_node_meter6;
phases CS;
nominal_voltage 124.00;
}
object triplex_line {
name trip_line6_7;
phases CS;
from trip_node6_7;
to trip_meter6_7;
length 0;
configuration triplex_line_configuration_1;
}
object triplex_meter {
name trip_meter6_7;
phases CS;
nominal_voltage 124.00;
}
object triplex_line {
name meter_house6_8;
phases CS;
from trip_meter6;
to trip_node6_8;
length 0;
configuration triplex_line_configuration_1;
}
object triplex_meter {
name trip_node6_8;
groupid trip_node_meter6;
phases CS;
nominal_voltage 124.00;
}
object triplex_line {
name trip_line6_8;
phases CS;
from trip_node6_8;
to trip_meter6_8;
length 0;
configuration triplex_line_configuration_1;
}
object triplex_meter {
name trip_meter6_8;
phases CS;
nominal_voltage 124.00;
}
object triplex_line {
name meter_house6_9;
phases CS;
from trip_meter6;
to trip_node6_9;
length 0;
configuration triplex_line_configuration_1;
}
object triplex_meter {
name trip_node6_9;
groupid trip_node_meter6;
phases CS;
nominal_voltage 124.00;
}
object triplex_line {
name trip_line6_9;
phases CS;
from trip_node6_9;
to trip_meter6_9;
length 0;
configuration triplex_line_configuration_1;
}
object triplex_meter {
name trip_meter6_9;
phases CS;
nominal_voltage 124.00;
}
object triplex_line {
name meter_house6_10;
phases CS;
from trip_meter6;
to trip_node6_10;
length 0;
configuration triplex_line_configuration_1;
}
object triplex_meter {
name trip_node6_10;
groupid trip_node_meter6;
phases CS;
nominal_voltage 124.00;
}
object triplex_line {
name trip_line6_10;
phases CS;
from trip_node6_10;
to trip_meter6_10;
length 0;
configuration triplex_line_configuration_1;
}
object triplex_meter {
name trip_meter6_10;
phases CS;
nominal_voltage 124.00;
}
object triplex_line {
name meter_house6_11;
phases CS;
from trip_meter6;
to trip_node6_11;
length 0;
configuration triplex_line_configuration_1;
}
object triplex_meter {
name trip_node6_11;
groupid trip_node_meter6;
phases CS;
nominal_voltage 124.00;
}
object triplex_line {
name trip_line6_11;
phases CS;
from trip_node6_11;
to trip_meter6_11;
length 0;
configuration triplex_line_configuration_1;
}
object triplex_meter {
name trip_meter6_11;
phases CS;
nominal_voltage 124.00;
}
object triplex_line {
name meter_house6_12;
phases CS;
from trip_meter6;
to trip_node6_12;
length 0;
configuration triplex_line_configuration_1;
}
object triplex_meter {
name trip_node6_12;
groupid trip_node_meter6;
phases CS;
nominal_voltage 124.00;
}
object triplex_line {
name trip_line6_12;
phases CS;
from trip_node6_12;
to trip_meter6_12;
length 0;
configuration triplex_line_configuration_1;
}
object triplex_meter {
name trip_meter6_12;
phases CS;
nominal_voltage 124.00;
}
object triplex_line {
name trip_line7;
phases BS;
from trip_node7;
to trip_meter7;
length 0;
configuration triplex_line_configuration_1;
}
object triplex_meter {
name trip_meter7;
phases BS;
nominal_voltage 124.00;
}
object triplex_line {
name meter_house7_1;
phases BS;
from trip_meter7;
to trip_node7_1;
length 0;
configuration triplex_line_configuration_1;
}
object triplex_meter {
name trip_node7_1;
groupid trip_node_meter7;
phases BS;
nominal_voltage 124.00;
}
object triplex_line {
name trip_line7_1;
phases BS;
from trip_node7_1;
to trip_meter7_1;
length 0;
configuration triplex_line_configuration_1;
}
object triplex_meter {
name trip_meter7_1;
phases BS;
nominal_voltage 124.00;
}
object triplex_line {
name meter_house7_2;
phases BS;
from trip_meter7;
to trip_node7_2;
length 0;
configuration triplex_line_configuration_1;
}
object triplex_meter {
name trip_node7_2;
groupid trip_node_meter7;
phases BS;
nominal_voltage 124.00;
}
object triplex_line {
name trip_line7_2;
phases BS;
from trip_node7_2;
to trip_meter7_2;
length 0;
configuration triplex_line_configuration_1;
}
object triplex_meter {
name trip_meter7_2;
phases BS;
nominal_voltage 124.00;
}
object triplex_line {
name meter_house7_3;
phases BS;
from trip_meter7;
to trip_node7_3;
length 0;
configuration triplex_line_configuration_1;
}
object triplex_meter {
name trip_node7_3;
groupid trip_node_meter7;
phases BS;
nominal_voltage 124.00;
}
object triplex_line {
name trip_line7_3;
phases BS;
from trip_node7_3;
to trip_meter7_3;
length 0;
configuration triplex_line_configuration_1;
}
object triplex_meter {
name trip_meter7_3;
phases BS;
nominal_voltage 124.00;
}
object triplex_line {
name meter_house7_4;
phases BS;
from trip_meter7;
to trip_node7_4;
length 0;
configuration triplex_line_configuration_1;
}
object triplex_meter {
name trip_node7_4;
groupid trip_node_meter7;
phases BS;
nominal_voltage 124.00;
}
object triplex_line {
name trip_line7_4;
phases BS;
from trip_node7_4;
to trip_meter7_4;
length 0;
configuration triplex_line_configuration_1;
}
object triplex_meter {
name trip_meter7_4;
phases BS;
nominal_voltage 124.00;
}
object triplex_line {
name meter_house7_5;
phases BS;
from trip_meter7;
to trip_node7_5;
length 0;
configuration triplex_line_configuration_1;
}
object triplex_meter {
name trip_node7_5;
groupid trip_node_meter7;
phases BS;
nominal_voltage 124.00;
}
object triplex_line {
name trip_line7_5;
phases BS;
from trip_node7_5;
to trip_meter7_5;
length 0;
configuration triplex_line_configuration_1;
}
object triplex_meter {
name trip_meter7_5;
phases BS;
nominal_voltage 124.00;
}
object triplex_line {
name meter_house7_6;
phases BS;
from trip_meter7;
to trip_node7_6;
length 0;
configuration triplex_line_configuration_1;
}
object triplex_meter {
name trip_node7_6;
groupid trip_node_meter7;
phases BS;
nominal_voltage 124.00;
}
object triplex_line {
name trip_line7_6;
phases BS;
from trip_node7_6;
to trip_meter7_6;
length 0;
configuration triplex_line_configuration_1;
}
object triplex_meter {
name trip_meter7_6;
phases BS;
nominal_voltage 124.00;
}
object triplex_line {
name meter_house7_7;
phases BS;
from trip_meter7;
to trip_node7_7;
length 0;
configuration triplex_line_configuration_1;
}
object triplex_meter {
name trip_node7_7;
groupid trip_node_meter7;
phases BS;
nominal_voltage 124.00;
}
object triplex_line {
name trip_line7_7;
phases BS;
from trip_node7_7;
to trip_meter7_7;
length 0;
configuration triplex_line_configuration_1;
}
object triplex_meter {
name trip_meter7_7;
phases BS;
nominal_voltage 124.00;
}
object triplex_line {
name meter_house7_8;
phases BS;
from trip_meter7;
to trip_node7_8;
length 0;
configuration triplex_line_configuration_1;
}
object triplex_meter {
name trip_node7_8;
groupid trip_node_meter7;
phases BS;
nominal_voltage 124.00;
}
object triplex_line {
name trip_line7_8;
phases BS;
from trip_node7_8;
to trip_meter7_8;
length 0;
configuration triplex_line_configuration_1;
}
object triplex_meter {
name trip_meter7_8;
phases BS;
nominal_voltage 124.00;
}
object triplex_line {
name meter_house7_9;
phases BS;
from trip_meter7;
to trip_node7_9;
length 0;
configuration triplex_line_configuration_1;
}
object triplex_meter {
name trip_node7_9;
groupid trip_node_meter7;
phases BS;
nominal_voltage 124.00;
}
object triplex_line {
name trip_line7_9;
phases BS;
from trip_node7_9;
to trip_meter7_9;
length 0;
configuration triplex_line_configuration_1;
}
object triplex_meter {
name trip_meter7_9;
phases BS;
nominal_voltage 124.00;
}
object triplex_line {
name meter_house7_10;
phases BS;
from trip_meter7;
to trip_node7_10;
length 0;
configuration triplex_line_configuration_1;
}
object triplex_meter {
name trip_node7_10;
groupid trip_node_meter7;
phases BS;
nominal_voltage 124.00;
}
object triplex_line {
name trip_line7_10;
phases BS;
from trip_node7_10;
to trip_meter7_10;
length 0;
configuration triplex_line_configuration_1;
}
object triplex_meter {
name trip_meter7_10;
phases BS;
nominal_voltage 124.00;
}
object triplex_line {
name meter_house7_11;
phases BS;
from trip_meter7;
to trip_node7_11;
length 0;
configuration triplex_line_configuration_1;
}
object triplex_meter {
name trip_node7_11;
groupid trip_node_meter7;
phases BS;
nominal_voltage 124.00;
}
object triplex_line {
name trip_line7_11;
phases BS;
from trip_node7_11;
to trip_meter7_11;
length 0;
configuration triplex_line_configuration_1;
}
object triplex_meter {
name trip_meter7_11;
phases BS;
nominal_voltage 124.00;
}
object triplex_line {
name meter_house7_12;
phases BS;
from trip_meter7;
to trip_node7_12;
length 0;
configuration triplex_line_configuration_1;
}
object triplex_meter {
name trip_node7_12;
groupid trip_node_meter7;
phases BS;
nominal_voltage 124.00;
}
object triplex_line {
name trip_line7_12;
phases BS;
from trip_node7_12;
to trip_meter7_12;
length 0;
configuration triplex_line_configuration_1;
}
object triplex_meter {
name trip_meter7_12;
phases BS;
nominal_voltage 124.00;
}
object triplex_line {
name trip_line8;
phases CS;
from trip_node8;
to trip_meter8;
length 0;
configuration triplex_line_configuration_1;
}
object triplex_meter {
name trip_meter8;
phases CS;
nominal_voltage 124.00;
}
object triplex_line {
name meter_house8_1;
phases CS;
from trip_meter8;
to trip_node8_1;
length 0;
configuration triplex_line_configuration_1;
}
object triplex_meter {
name trip_node8_1;
groupid trip_node_meter8;
phases CS;
nominal_voltage 124.00;
}
object triplex_line {
name trip_line8_1;
phases CS;
from trip_node8_1;
to trip_meter8_1;
length 0;
configuration triplex_line_configuration_1;
}
object triplex_meter {
name trip_meter8_1;
phases CS;
nominal_voltage 124.00;
}
object triplex_line {
name meter_house8_2;
phases CS;
from trip_meter8;
to trip_node8_2;
length 0;
configuration triplex_line_configuration_1;
}
object triplex_meter {
name trip_node8_2;
groupid trip_node_meter8;
phases CS;
nominal_voltage 124.00;
}
object triplex_line {
name trip_line8_2;
phases CS;
from trip_node8_2;
to trip_meter8_2;
length 0;
configuration triplex_line_configuration_1;
}
object triplex_meter {
name trip_meter8_2;
phases CS;
nominal_voltage 124.00;
}
object triplex_line {
name meter_house8_3;
phases CS;
from trip_meter8;
to trip_node8_3;
length 0;
configuration triplex_line_configuration_1;
}
object triplex_meter {
name trip_node8_3;
groupid trip_node_meter8;
phases CS;
nominal_voltage 124.00;
}
object triplex_line {
name trip_line8_3;
phases CS;
from trip_node8_3;
to trip_meter8_3;
length 0;
configuration triplex_line_configuration_1;
}
object triplex_meter {
name trip_meter8_3;
phases CS;
nominal_voltage 124.00;
}
object triplex_line {
name meter_house8_4;
phases CS;
from trip_meter8;
to trip_node8_4;
length 0;
configuration triplex_line_configuration_1;
}
object triplex_meter {
name trip_node8_4;
groupid trip_node_meter8;
phases CS;
nominal_voltage 124.00;
}
object triplex_line {
name trip_line8_4;
phases CS;
from trip_node8_4;
to trip_meter8_4;
length 0;
configuration triplex_line_configuration_1;
}
object triplex_meter {
name trip_meter8_4;
phases CS;
nominal_voltage 124.00;
}
object triplex_line {
name meter_house8_5;
phases CS;
from trip_meter8;
to trip_node8_5;
length 0;
configuration triplex_line_configuration_1;
}
object triplex_meter {
name trip_node8_5;
groupid trip_node_meter8;
phases CS;
nominal_voltage 124.00;
}
object triplex_line {
name trip_line8_5;
phases CS;
from trip_node8_5;
to trip_meter8_5;
length 0;
configuration triplex_line_configuration_1;
}
object triplex_meter {
name trip_meter8_5;
phases CS;
nominal_voltage 124.00;
}
object triplex_line {
name meter_house8_6;
phases CS;
from trip_meter8;
to trip_node8_6;
length 0;
configuration triplex_line_configuration_1;
}
object triplex_meter {
name trip_node8_6;
groupid trip_node_meter8;
phases CS;
nominal_voltage 124.00;
}
object triplex_line {
name trip_line8_6;
phases CS;
from trip_node8_6;
to trip_meter8_6;
length 0;
configuration triplex_line_configuration_1;
}
object triplex_meter {
name trip_meter8_6;
phases CS;
nominal_voltage 124.00;
}
object triplex_line {
name meter_house8_7;
phases CS;
from trip_meter8;
to trip_node8_7;
length 0;
configuration triplex_line_configuration_1;
}
object triplex_meter {
name trip_node8_7;
groupid trip_node_meter8;
phases CS;
nominal_voltage 124.00;
}
object triplex_line {
name trip_line8_7;
phases CS;
from trip_node8_7;
to trip_meter8_7;
length 0;
configuration triplex_line_configuration_1;
}
object triplex_meter {
name trip_meter8_7;
phases CS;
nominal_voltage 124.00;
}
object triplex_line {
name meter_house8_8;
phases CS;
from trip_meter8;
to trip_node8_8;
length 0;
configuration triplex_line_configuration_1;
}
object triplex_meter {
name trip_node8_8;
groupid trip_node_meter8;
phases CS;
nominal_voltage 124.00;
}
object triplex_line {
name trip_line8_8;
phases CS;
from trip_node8_8;
to trip_meter8_8;
length 0;
configuration triplex_line_configuration_1;
}
object triplex_meter {
name trip_meter8_8;
phases CS;
nominal_voltage 124.00;
}
object triplex_line {
name meter_house8_9;
phases CS;
from trip_meter8;
to trip_node8_9;
length 0;
configuration triplex_line_configuration_1;
}
object triplex_meter {
name trip_node8_9;
groupid trip_node_meter8;
phases CS;
nominal_voltage 124.00;
}
object triplex_line {
name trip_line8_9;
phases CS;
from trip_node8_9;
to trip_meter8_9;
length 0;
configuration triplex_line_configuration_1;
}
object triplex_meter {
name trip_meter8_9;
phases CS;
nominal_voltage 124.00;
}
object triplex_line {
name meter_house8_10;
phases CS;
from trip_meter8;
to trip_node8_10;
length 0;
configuration triplex_line_configuration_1;
}
object triplex_meter {
name trip_node8_10;
groupid trip_node_meter8;
phases CS;
nominal_voltage 124.00;
}
object triplex_line {
name trip_line8_10;
phases CS;
from trip_node8_10;
to trip_meter8_10;
length 0;
configuration triplex_line_configuration_1;
}
object triplex_meter {
name trip_meter8_10;
phases CS;
nominal_voltage 124.00;
}
object triplex_line {
name meter_house8_11;
phases CS;
from trip_meter8;
to trip_node8_11;
length 0;
configuration triplex_line_configuration_1;
}
object triplex_meter {
name trip_node8_11;
groupid trip_node_meter8;
phases CS;
nominal_voltage 124.00;
}
object triplex_line {
name trip_line8_11;
phases CS;
from trip_node8_11;
to trip_meter8_11;
length 0;
configuration triplex_line_configuration_1;
}
object triplex_meter {
name trip_meter8_11;
phases CS;
nominal_voltage 124.00;
}
object triplex_line {
name meter_house8_12;
phases CS;
from trip_meter8;
to trip_node8_12;
length 0;
configuration triplex_line_configuration_1;
}
object triplex_meter {
name trip_node8_12;
groupid trip_node_meter8;
phases CS;
nominal_voltage 124.00;
}
object triplex_line {
name trip_line8_12;
phases CS;
from trip_node8_12;
to trip_meter8_12;
length 0;
configuration triplex_line_configuration_1;
}
object triplex_meter {
name trip_meter8_12;
phases CS;
nominal_voltage 124.00;
}
object triplex_line {
name trip_line9;
phases AS;
from trip_node9;
to trip_meter9;
length 0;
configuration triplex_line_configuration_1;
}
object triplex_meter {
name trip_meter9;
phases AS;
nominal_voltage 124.00;
}
object triplex_line {
name meter_house9_1;
phases AS;
from trip_meter9;
to trip_node9_1;
length 0;
configuration triplex_line_configuration_1;
}
object triplex_meter {
name trip_node9_1;
groupid trip_node_meter9;
phases AS;
nominal_voltage 124.00;
}
object triplex_line {
name trip_line9_1;
phases AS;
from trip_node9_1;
to trip_meter9_1;
length 0;
configuration triplex_line_configuration_1;
}
object triplex_meter {
name trip_meter9_1;
phases AS;
nominal_voltage 124.00;
}
object triplex_line {
name meter_house9_2;
phases AS;
from trip_meter9;
to trip_node9_2;
length 0;
configuration triplex_line_configuration_1;
}
object triplex_meter {
name trip_node9_2;
groupid trip_node_meter9;
phases AS;
nominal_voltage 124.00;
}
object triplex_line {
name trip_line9_2;
phases AS;
from trip_node9_2;
to trip_meter9_2;
length 0;
configuration triplex_line_configuration_1;
}
object triplex_meter {
name trip_meter9_2;
phases AS;
nominal_voltage 124.00;
}
object triplex_line {
name meter_house9_3;
phases AS;
from trip_meter9;
to trip_node9_3;
length 0;
configuration triplex_line_configuration_1;
}
object triplex_meter {
name trip_node9_3;
groupid trip_node_meter9;
phases AS;
nominal_voltage 124.00;
}
object triplex_line {
name trip_line9_3;
phases AS;
from trip_node9_3;
to trip_meter9_3;
length 0;
configuration triplex_line_configuration_1;
}
object triplex_meter {
name trip_meter9_3;
phases AS;
nominal_voltage 124.00;
}
object triplex_line {
name meter_house9_4;
phases AS;
from trip_meter9;
to trip_node9_4;
length 0;
configuration triplex_line_configuration_1;
}
object triplex_meter {
name trip_node9_4;
groupid trip_node_meter9;
phases AS;
nominal_voltage 124.00;
}
object triplex_line {
name trip_line9_4;
phases AS;
from trip_node9_4;
to trip_meter9_4;
length 0;
configuration triplex_line_configuration_1;
}
object triplex_meter {
name trip_meter9_4;
phases AS;
nominal_voltage 124.00;
}
object triplex_line {
name meter_house9_5;
phases AS;
from trip_meter9;
to trip_node9_5;
length 0;
configuration triplex_line_configuration_1;
}
object triplex_meter {
name trip_node9_5;
groupid trip_node_meter9;
phases AS;
nominal_voltage 124.00;
}
object triplex_line {
name trip_line9_5;
phases AS;
from trip_node9_5;
to trip_meter9_5;
length 0;
configuration triplex_line_configuration_1;
}
object triplex_meter {
name trip_meter9_5;
phases AS;
nominal_voltage 124.00;
}
object triplex_line {
name meter_house9_6;
phases AS;
from trip_meter9;
to trip_node9_6;
length 0;
configuration triplex_line_configuration_1;
}
object triplex_meter {
name trip_node9_6;
groupid trip_node_meter9;
phases AS;
nominal_voltage 124.00;
}
object triplex_line {
name trip_line9_6;
phases AS;
from trip_node9_6;
to trip_meter9_6;
length 0;
configuration triplex_line_configuration_1;
}
object triplex_meter {
name trip_meter9_6;
phases AS;
nominal_voltage 124.00;
}
object triplex_line {
name meter_house9_7;
phases AS;
from trip_meter9;
to trip_node9_7;
length 0;
configuration triplex_line_configuration_1;
}
object triplex_meter {
name trip_node9_7;
groupid trip_node_meter9;
phases AS;
nominal_voltage 124.00;
}
object triplex_line {
name trip_line9_7;
phases AS;
from trip_node9_7;
to trip_meter9_7;
length 0;
configuration triplex_line_configuration_1;
}
object triplex_meter {
name trip_meter9_7;
phases AS;
nominal_voltage 124.00;
}
object triplex_line {
name meter_house9_8;
phases AS;
from trip_meter9;
to trip_node9_8;
length 0;
configuration triplex_line_configuration_1;
}
object triplex_meter {
name trip_node9_8;
groupid trip_node_meter9;
phases AS;
nominal_voltage 124.00;
}
object triplex_line {
name trip_line9_8;
phases AS;
from trip_node9_8;
to trip_meter9_8;
length 0;
configuration triplex_line_configuration_1;
}
object triplex_meter {
name trip_meter9_8;
phases AS;
nominal_voltage 124.00;
}
object triplex_line {
name meter_house9_9;
phases AS;
from trip_meter9;
to trip_node9_9;
length 0;
configuration triplex_line_configuration_1;
}
object triplex_meter {
name trip_node9_9;
groupid trip_node_meter9;
phases AS;
nominal_voltage 124.00;
}
object triplex_line {
name trip_line9_9;
phases AS;
from trip_node9_9;
to trip_meter9_9;
length 0;
configuration triplex_line_configuration_1;
}
object triplex_meter {
name trip_meter9_9;
phases AS;
nominal_voltage 124.00;
}
object triplex_line {
name meter_house9_10;
phases AS;
from trip_meter9;
to trip_node9_10;
length 0;
configuration triplex_line_configuration_1;
}
object triplex_meter {
name trip_node9_10;
groupid trip_node_meter9;
phases AS;
nominal_voltage 124.00;
}
object triplex_line {
name trip_line9_10;
phases AS;
from trip_node9_10;
to trip_meter9_10;
length 0;
configuration triplex_line_configuration_1;
}
object triplex_meter {
name trip_meter9_10;
phases AS;
nominal_voltage 124.00;
}
object triplex_line {
name meter_house9_11;
phases AS;
from trip_meter9;
to trip_node9_11;
length 0;
configuration triplex_line_configuration_1;
}
object triplex_meter {
name trip_node9_11;
groupid trip_node_meter9;
phases AS;
nominal_voltage 124.00;
}
object triplex_line {
name trip_line9_11;
phases AS;
from trip_node9_11;
to trip_meter9_11;
length 0;
configuration triplex_line_configuration_1;
}
object triplex_meter {
name trip_meter9_11;
phases AS;
nominal_voltage 124.00;
}
object triplex_line {
name meter_house9_12;
phases AS;
from trip_meter9;
to trip_node9_12;
length 0;
configuration triplex_line_configuration_1;
}
object triplex_meter {
name trip_node9_12;
groupid trip_node_meter9;
phases AS;
nominal_voltage 124.00;
}
object triplex_line {
name trip_line9_12;
phases AS;
from trip_node9_12;
to trip_meter9_12;
length 0;
configuration triplex_line_configuration_1;
}
object triplex_meter {
name trip_meter9_12;
phases AS;
nominal_voltage 124.00;
}
object triplex_line {
name trip_line10;
phases AS;
from trip_node10;
to trip_meter10;
length 0;
configuration triplex_line_configuration_1;
}
object triplex_meter {
name trip_meter10;
phases AS;
nominal_voltage 124.00;
}
object triplex_line {
name meter_house10_1;
phases AS;
from trip_meter10;
to trip_node10_1;
length 0;
configuration triplex_line_configuration_1;
}
object triplex_meter {
name trip_node10_1;
groupid trip_node_meter10;
phases AS;
nominal_voltage 124.00;
}
object triplex_line {
name trip_line10_1;
phases AS;
from trip_node10_1;
to trip_meter10_1;
length 0;
configuration triplex_line_configuration_1;
}
object triplex_meter {
name trip_meter10_1;
phases AS;
nominal_voltage 124.00;
}
object triplex_line {
name meter_house10_2;
phases AS;
from trip_meter10;
to trip_node10_2;
length 0;
configuration triplex_line_configuration_1;
}
object triplex_meter {
name trip_node10_2;
groupid trip_node_meter10;
phases AS;
nominal_voltage 124.00;
}
object triplex_line {
name trip_line10_2;
phases AS;
from trip_node10_2;
to trip_meter10_2;
length 0;
configuration triplex_line_configuration_1;
}
object triplex_meter {
name trip_meter10_2;
phases AS;
nominal_voltage 124.00;
}
object triplex_line {
name meter_house10_3;
phases AS;
from trip_meter10;
to trip_node10_3;
length 0;
configuration triplex_line_configuration_1;
}
object triplex_meter {
name trip_node10_3;
groupid trip_node_meter10;
phases AS;
nominal_voltage 124.00;
}
object triplex_line {
name trip_line10_3;
phases AS;
from trip_node10_3;
to trip_meter10_3;
length 0;
configuration triplex_line_configuration_1;
}
object triplex_meter {
name trip_meter10_3;
phases AS;
nominal_voltage 124.00;
}
object triplex_line {
name meter_house10_4;
phases AS;
from trip_meter10;
to trip_node10_4;
length 0;
configuration triplex_line_configuration_1;
}
object triplex_meter {
name trip_node10_4;
groupid trip_node_meter10;
phases AS;
nominal_voltage 124.00;
}
object triplex_line {
name trip_line10_4;
phases AS;
from trip_node10_4;
to trip_meter10_4;
length 0;
configuration triplex_line_configuration_1;
}
object triplex_meter {
name trip_meter10_4;
phases AS;
nominal_voltage 124.00;
}
object triplex_line {
name meter_house10_5;
phases AS;
from trip_meter10;
to trip_node10_5;
length 0;
configuration triplex_line_configuration_1;
}
object triplex_meter {
name trip_node10_5;
groupid trip_node_meter10;
phases AS;
nominal_voltage 124.00;
}
object triplex_line {
name trip_line10_5;
phases AS;
from trip_node10_5;
to trip_meter10_5;
length 0;
configuration triplex_line_configuration_1;
}
object triplex_meter {
name trip_meter10_5;
phases AS;
nominal_voltage 124.00;
}
object triplex_line {
name meter_house10_6;
phases AS;
from trip_meter10;
to trip_node10_6;
length 0;
configuration triplex_line_configuration_1;
}
object triplex_meter {
name trip_node10_6;
groupid trip_node_meter10;
phases AS;
nominal_voltage 124.00;
}
object triplex_line {
name trip_line10_6;
phases AS;
from trip_node10_6;
to trip_meter10_6;
length 0;
configuration triplex_line_configuration_1;
}
object triplex_meter {
name trip_meter10_6;
phases AS;
nominal_voltage 124.00;
}
object triplex_line {
name meter_house10_7;
phases AS;
from trip_meter10;
to trip_node10_7;
length 0;
configuration triplex_line_configuration_1;
}
object triplex_meter {
name trip_node10_7;
groupid trip_node_meter10;
phases AS;
nominal_voltage 124.00;
}
object triplex_line {
name trip_line10_7;
phases AS;
from trip_node10_7;
to trip_meter10_7;
length 0;
configuration triplex_line_configuration_1;
}
object triplex_meter {
name trip_meter10_7;
phases AS;
nominal_voltage 124.00;
}
object triplex_line {
name meter_house10_8;
phases AS;
from trip_meter10;
to trip_node10_8;
length 0;
configuration triplex_line_configuration_1;
}
object triplex_meter {
name trip_node10_8;
groupid trip_node_meter10;
phases AS;
nominal_voltage 124.00;
}
object triplex_line {
name trip_line10_8;
phases AS;
from trip_node10_8;
to trip_meter10_8;
length 0;
configuration triplex_line_configuration_1;
}
object triplex_meter {
name trip_meter10_8;
phases AS;
nominal_voltage 124.00;
}
object triplex_line {
name meter_house10_9;
phases AS;
from trip_meter10;
to trip_node10_9;
length 0;
configuration triplex_line_configuration_1;
}
object triplex_meter {
name trip_node10_9;
groupid trip_node_meter10;
phases AS;
nominal_voltage 124.00;
}
object triplex_line {
name trip_line10_9;
phases AS;
from trip_node10_9;
to trip_meter10_9;
length 0;
configuration triplex_line_configuration_1;
}
object triplex_meter {
name trip_meter10_9;
phases AS;
nominal_voltage 124.00;
}
object triplex_line {
name meter_house10_10;
phases AS;
from trip_meter10;
to trip_node10_10;
length 0;
configuration triplex_line_configuration_1;
}
object triplex_meter {
name trip_node10_10;
groupid trip_node_meter10;
phases AS;
nominal_voltage 124.00;
}
object triplex_line {
name trip_line10_10;
phases AS;
from trip_node10_10;
to trip_meter10_10;
length 0;
configuration triplex_line_configuration_1;
}
object triplex_meter {
name trip_meter10_10;
phases AS;
nominal_voltage 124.00;
}
object triplex_line {
name meter_house10_11;
phases AS;
from trip_meter10;
to trip_node10_11;
length 0;
configuration triplex_line_configuration_1;
}
object triplex_meter {
name trip_node10_11;
groupid trip_node_meter10;
phases AS;
nominal_voltage 124.00;
}
object triplex_line {
name trip_line10_11;
phases AS;
from trip_node10_11;
to trip_meter10_11;
length 0;
configuration triplex_line_configuration_1;
}
object triplex_meter {
name trip_meter10_11;
phases AS;
nominal_voltage 124.00;
}
object triplex_line {
name meter_house10_12;
phases AS;
from trip_meter10;
to trip_node10_12;
length 0;
configuration triplex_line_configuration_1;
}
object triplex_meter {
name trip_node10_12;
groupid trip_node_meter10;
phases AS;
nominal_voltage 124.00;
}
object triplex_line {
name trip_line10_12;
phases AS;
from trip_node10_12;
to trip_meter10_12;
length 0;
configuration triplex_line_configuration_1;
}
object triplex_meter {
name trip_meter10_12;
phases AS;
nominal_voltage 124.00;
}
object triplex_line {
name trip_line11;
phases BS;
from trip_node11;
to trip_meter11;
length 0;
configuration triplex_line_configuration_1;
}
object triplex_meter {
name trip_meter11;
phases BS;
nominal_voltage 124.00;
}
object triplex_line {
name meter_house11_1;
phases BS;
from trip_meter11;
to trip_node11_1;
length 0;
configuration triplex_line_configuration_1;
}
object triplex_meter {
name trip_node11_1;
groupid trip_node_meter11;
phases BS;
nominal_voltage 124.00;
}
object triplex_line {
...